/*--------------------------------*- C++ -*----------------------------------*\
| =========                 |                                                 |
| \\      /  F ield         | OpenFOAM: The Open Source CFD Toolbox           |
|  \\    /   O peration     | Version:  2.3.0                                 |
|   \\  /    A nd           | Web:      www.OpenFOAM.org                      |
|    \\/     M anipulation  |                                                 |
\*---------------------------------------------------------------------------*/
FoamFile
{
    version     2.0;
    format      ascii;
    class       dictionary;
    object      createBafflesDict;
}
// * * * * * * * * * * * * * * * * * * * * * * * * * * * * * * * * * * * * * //

internalFacesOnly true;


baffles
{
    baffleFaces
    {
        type        faceZone;
        zoneName    semiConductor1;

        patches
        {
            master
            {
                name            semiConductor1;
                type            wall;

                patchFields
                {
                  T.air
                  {
                    type            zeroGradient;
                  }
                  T.water
                  {
                    type            zeroGradient;
                  }
                  Theta
                  {
                    type            zeroGradient;
                  }
                  U.air
                  {
                    type            fixedValue;
                    value           uniform (0 0 0);
                  }
                  U.water
                  {
                    type            fixedValue;
                    value           uniform (0 0 0);
                  }
                  alpha.air
                  {
                    type            zeroGradient;
                  }
                  epsilon.air
                  {
                    type            zeroGradient;
                  }
                  epsilon.water
                  {
                    type            zeroGradient;
                  }
                  k.air
                  {
                    type            zeroGradient;
                  }
                  k.water
                  {
                    type            zeroGradient;
                  }
                  nut.air
                  {
                    type            zeroGradient;
                  }
                  nut.water
                  {
                    type            zeroGradient;
                  }
                  p
                  {
                    type            zeroGradient;
                  }
                }
            }
            slave
            {
                name            semiConductor1-shadow;
                $master;
            }
        }
    }
}


// ************************************************************************* //
