/*--------------------------------*- C++ -*----------------------------------*\
| =========                 |                                                 |
| \\      /  F ield         | OpenFOAM: The Open Source CFD Toolbox           |
|  \\    /   O peration     | Version:  2.3.0                                 |
|   \\  /    A nd           | Web:      www.OpenFOAM.org                      |
|    \\/     M anipulation  |                                                 |
\*---------------------------------------------------------------------------*/
FoamFile
{
    version     2.0;
    format      ascii;
    class       polyBoundaryMesh;
    location    "0.005/polyMesh";
    object      boundary;
}
// * * * * * * * * * * * * * * * * * * * * * * * * * * * * * * * * * * * * * //

6
(
    aeration
    {
        type            patch;
        nFaces          225;
        startFace       4995;
    }
    xsides
    {
        type            patch;
        nFaces          450;
        startFace       5220;
    }
    zsides
    {
        type            patch;
        nFaces          162;
        startFace       5670;
    }
    outlet
    {
        type            patch;
        nFaces          225;
        startFace       5832;
    }
    semiConductor1
    {
        type            wall;
        inGroups        
2
(
wall
baffleFaces
)
;
        nFaces          549;
        startFace       6057;
    }
    semiConductor1-shadow
    {
        type            wall;
        inGroups        
2
(
wall
baffleFaces
)
;
        nFaces          549;
        startFace       6606;
    }
)

// ************************************************************************* //
