/*--------------------------------*- C++ -*----------------------------------*\
| =========                 |                                                 |
| \\      /  F ield         | OpenFOAM: The Open Source CFD Toolbox           |
|  \\    /   O peration     | Version:  2.3.0                                 |
|   \\  /    A nd           | Web:      www.OpenFOAM.org                      |
|    \\/     M anipulation  |                                                 |
\*---------------------------------------------------------------------------*/
FoamFile
{
    version     2.0;
    format      ascii;
    class       dictionary;
    object      blockMeshDict;
}
// * * * * * * * * * * * * * * * * * * * * * * * * * * * * * * * * * * * * * //

convertToMeters 1e-3;

vertices
(
    (0 0 0)
    (36 0 0)
    (0 36 0)
    (36 36 0)
    (0 0 2.5)
    (36 0 2.5)
    (0 36 2.5)
    (36 36 2.5)
);

blocks
(
    hex (0 1 3 2 4 5 7 6) (9 9 25) simpleGrading (1 1 1)
);

edges
(
);

patches
(
    patch aeration
    (
        (0 1 5 4)
    )
    patch xsides
    (
        (0 2 6 4)
        (5 1 3 7)
    )
    patch zsides
    (
        (0 1 3 2)
        (4 5 7 6)
    )
    patch outlet
    (
        (2 3 7 6)
    )
);

mergePatchPairs
(
);

// ************************************************************************* //
