/*--------------------------------*- C++ -*----------------------------------*\
| =========                 |                                                 |
| \\      /  F ield         | OpenFOAM: The Open Source CFD Toolbox           |
|  \\    /   O peration     | Version:  2.3.0                                 |
|   \\  /    A nd           | Web:      www.OpenFOAM.org                      |
|    \\/     M anipulation  |                                                 |
\*---------------------------------------------------------------------------*/
FoamFile
{
    version     2.0;
    format      ascii;
    class       polyBoundaryMesh;
    location    "constant/polyMesh";
    object      boundary;
}
// * * * * * * * * * * * * * * * * * * * * * * * * * * * * * * * * * * * * * //

8
(
    aeration
    {
        type            patch;
        nFaces          672;
        startFace       49938;
    }
    xsides
    {
        type            wall;
        inGroups        1(wall);
        nFaces          1344;
        startFace       50610;
    }
    zsides
    {
        type            wall;
        inGroups        1(wall);
        nFaces          1568;
        startFace       51954;
    }
    outlet
    {
        type            wall;
        inGroups        1(wall);
        nFaces          672;
        startFace       53522;
    }
    semiConductor1
    {
        type            wall;
        inGroups        
2
(
wall
baffleFaces
)
;
        nFaces          2199;
        startFace       54194;
    }
    semiConductor1-shadow
    {
        type            wall;
        inGroups        
2
(
wall
baffleFaces
)
;
        nFaces          2199;
        startFace       56393;
    }
    semiConductor2
    {
        type            wall;
        inGroups        
2
(
wall
baffleFaces
)
;
        nFaces          2183;
        startFace       58592;
    }
    semiConductor2-shadow2
    {
        type            wall;
        inGroups        
2
(
wall
baffleFaces
)
;
        nFaces          2183;
        startFace       60775;
    }
)

// ************************************************************************* //
