/*--------------------------------*- C++ -*----------------------------------*\
| =========                 |                                                 |
| \\      /  F ield         | OpenFOAM: The Open Source CFD Toolbox           |
|  \\    /   O peration     | Version:  2.3.0                                 |
|   \\  /    A nd           | Web:      www.OpenFOAM.org                      |
|    \\/     M anipulation  |                                                 |
\*---------------------------------------------------------------------------*/
FoamFile
{
    version     2.0;
    format      ascii;
    class       polyBoundaryMesh;
    location    "constant/polyMesh";
    object      boundary;
}
// * * * * * * * * * * * * * * * * * * * * * * * * * * * * * * * * * * * * * //

8
(
    aeration
    {
        type            patch;
        nFaces          500;
        startFace       23061;
    }
    xsides
    {
        type            patch;
        nFaces          1000;
        startFace       23561;
    }
    zsides
    {
        type            patch;
        nFaces          800;
        startFace       24561;
    }
    outlet
    {
        type            patch;
        nFaces          500;
        startFace       25361;
    }
    semiConductor1
    {
        type            wall;
        inGroups        
2
(
wall
baffleFaces
)
;
        nFaces          2762;
        startFace       25861;
    }
    semiConductor1-shadow
    {
        type            wall;
        inGroups        
2
(
wall
baffleFaces
)
;
        nFaces          2762;
        startFace       28623;
    }
    semiConductor2
    {
        type            wall;
        inGroups        
2
(
wall
baffleFaces
)
;
        nFaces          2777;
        startFace       31385;
    }
    semiConductor2-shadow2
    {
        type            wall;
        inGroups        
2
(
wall
baffleFaces
)
;
        nFaces          2777;
        startFace       34162;
    }
)

// ************************************************************************* //
