/*--------------------------------*- C++ -*----------------------------------*\
| =========                 |                                                 |
| \\      /  F ield         | OpenFOAM: The Open Source CFD Toolbox           |
|  \\    /   O peration     | Version:  2.3.0                                 |
|   \\  /    A nd           | Web:      www.OpenFOAM.org                      |
|    \\/     M anipulation  |                                                 |
\*---------------------------------------------------------------------------*/
FoamFile
{
    version     2.0;
    format      ascii;
    class       polyBoundaryMesh;
    location    "constant/polyMesh";
    object      boundary;
}
// * * * * * * * * * * * * * * * * * * * * * * * * * * * * * * * * * * * * * //

8
(
    aeration
    {
        type            patch;
        nFaces          672;
        startFace       37284;
    }
    xsides
    {
        type            patch;
        nFaces          1344;
        startFace       37956;
    }
    zsides
    {
        type            patch;
        nFaces          1568;
        startFace       39300;
    }
    outlet
    {
        type            patch;
        nFaces          672;
        startFace       40868;
    }
    semiConductor1
    {
        type            wall;
        inGroups        
2
(
wall
baffleFaces
)
;
        nFaces          8540;
        startFace       41540;
    }
    semiConductor1-shadow
    {
        type            wall;
        inGroups        
2
(
wall
baffleFaces
)
;
        nFaces          8540;
        startFace       50080;
    }
    semiConductor2
    {
        type            wall;
        inGroups        
2
(
wall
baffleFaces
)
;
        nFaces          8496;
        startFace       58620;
    }
    semiConductor2-shadow2
    {
        type            wall;
        inGroups        
2
(
wall
baffleFaces
)
;
        nFaces          8496;
        startFace       67116;
    }
)

// ************************************************************************* //
