/*--------------------------------*- C++ -*----------------------------------*\
| =========                 |                                                 |
| \\      /  F ield         | OpenFOAM: The Open Source CFD Toolbox           |
|  \\    /   O peration     | Version:  2.3.0                                 |
|   \\  /    A nd           | Web:      www.OpenFOAM.org                      |
|    \\/     M anipulation  |                                                 |
\*---------------------------------------------------------------------------*/
FoamFile
{
    version     2.0;
    format      ascii;
    class       polyBoundaryMesh;
    location    "constant/polyMesh";
    object      boundary;
}
// * * * * * * * * * * * * * * * * * * * * * * * * * * * * * * * * * * * * * //

4
(
    aeration
    {
        type            patch;
        nFaces          225;
        startFace       5544;
    }
    xsides
    {
        type            patch;
        nFaces          450;
        startFace       5769;
    }
    zsides
    {
        type            patch;
        nFaces          162;
        startFace       6219;
    }
    outlet
    {
        type            patch;
        nFaces          225;
        startFace       6381;
    }
)

// ************************************************************************* //
