/*--------------------------------*- C++ -*----------------------------------*\
| =========                 |                                                 |
| \\      /  F ield         | OpenFOAM: The Open Source CFD Toolbox           |
|  \\    /   O peration     | Version:  2.3.0                                 |
|   \\  /    A nd           | Web:      www.OpenFOAM.org                      |
|    \\/     M anipulation  |                                                 |
\*---------------------------------------------------------------------------*/
FoamFile
{
    version     2.0;
    format      ascii;
    class       polyBoundaryMesh;
    location    "constant/polyMesh";
    object      boundary;
}
// * * * * * * * * * * * * * * * * * * * * * * * * * * * * * * * * * * * * * //

8
(
    aeration
    {
        type            patch;
        nFaces          225;
        startFace       4430;
    }
    xsides
    {
        type            patch;
        nFaces          450;
        startFace       4655;
    }
    zsides
    {
        type            patch;
        nFaces          162;
        startFace       5105;
    }
    outlet
    {
        type            patch;
        nFaces          225;
        startFace       5267;
    }
    semiConductor1
    {
        type            wall;
        inGroups        
2
(
wall
baffleFaces
)
;
        nFaces          549;
        startFace       5492;
    }
    semiConductor1-shadow
    {
        type            wall;
        inGroups        
2
(
wall
baffleFaces
)
;
        nFaces          549;
        startFace       6041;
    }
    semiConductor2
    {
        type            wall;
        inGroups        
2
(
wall
baffleFaces
)
;
        nFaces          565;
        startFace       6590;
    }
    semiConductor2-shadow2
    {
        type            wall;
        inGroups        
2
(
wall
baffleFaces
)
;
        nFaces          565;
        startFace       7155;
    }
)

// ************************************************************************* //
