/*--------------------------------*- C++ -*----------------------------------*\
| =========                 |                                                 |
| \\      /  F ield         | OpenFOAM: The Open Source CFD Toolbox           |
|  \\    /   O peration     | Version:  2.3.0                                 |
|   \\  /    A nd           | Web:      www.OpenFOAM.org                      |
|    \\/     M anipulation  |                                                 |
\*---------------------------------------------------------------------------*/
FoamFile
{
    version     2.0;
    format      ascii;
    class       volScalarField;
    location    "0";
    object      Theta;
}
// * * * * * * * * * * * * * * * * * * * * * * * * * * * * * * * * * * * * * //

dimensions      [0 2 -2 0 0 0 0];

internalField   uniform 0;

boundaryField
{
    aeration
    {
        type            fixedValue;
        value           uniform 1e-07;
    }
    xsides
    {
        type            inletOutlet;
        inletValue      uniform 1e-07;
        value           uniform 1e-07;
    }
    zsides
    {
        type            inletOutlet;
        inletValue      uniform 1e-07;
        value           uniform 1e-07;
    }
    outlet
    {
        type            inletOutlet;
        inletValue      uniform 1e-07;
        value           uniform 1e-07;
    }
    defaultFaces
    {
        type            empty;
    }
    semiConductor
    {
        type            calculated;
        value           uniform 0;
    }
    semiConductor-shadow
    {
        type            calculated;
        value           uniform 0;
    }
}


// ************************************************************************* //
